Version 4
SHEET 1 880 680
WIRE 304 0 224 0
WIRE 480 0 384 0
WIRE 480 16 480 0
WIRE 224 112 224 0
WIRE 64 176 -48 176
WIRE 160 176 64 176
WIRE 368 176 320 176
WIRE 416 176 368 176
WIRE 416 208 416 176
WIRE -48 224 -48 176
WIRE -48 336 -48 304
WIRE 416 336 416 288
FLAG -48 336 0
FLAG 480 16 0
FLAG 416 336 0
FLAG 64 176 Vin
FLAG 368 176 Vout
SYMBOL voltage -48 208 R0
WINDOW 3 24 44 Left 2
WINDOW 123 0 0 Left 0
WINDOW 39 0 0 Left 0
SYMATTR Value PULSE(0 1 1e-10 10e-12 10e-12 0.1e-9 0.2e-9)
SYMATTR InstName vin
SYMBOL voltage 288 0 R270
WINDOW 0 32 56 VTop 2
WINDOW 3 -32 56 VBottom 2
WINDOW 123 0 0 Left 0
WINDOW 39 0 0 Left 0
SYMATTR InstName V1
SYMATTR Value 1
SYMBOL res 400 192 R0
SYMATTR InstName R
SYMATTR Value 100k
SYMBOL inverter 208 160 R0
SYMATTR InstName X2
TEXT -80 528 Left 2 ;.dc vin 0 1 0.01
TEXT 120 -96 Left 2 ;Inverter Testbench
TEXT -80 560 Left 2 !.tran 0 0.5n 0 10p
