Version 4
SHEET 1 1172 1032
WIRE -96 -32 -176 -32
WIRE 16 -32 -16 -32
WIRE 752 -32 16 -32
WIRE -176 48 -176 -32
WIRE 1120 96 -256 96
WIRE 16 144 16 -32
WIRE 752 144 752 -32
WIRE 1120 160 1120 96
WIRE -256 224 -256 96
WIRE -224 224 -256 224
WIRE 384 224 256 224
WIRE 512 224 384 224
WIRE 1024 224 992 224
WIRE 1120 224 1120 160
WIRE 1120 224 1088 224
WIRE -224 320 -256 320
WIRE 384 320 256 320
WIRE 512 320 384 320
WIRE 1024 320 1088 224
WIRE 1024 320 992 320
WIRE 1088 320 1024 224
WIRE 1120 320 1088 320
WIRE 1120 400 1120 320
WIRE -256 448 -256 320
WIRE 1120 448 1120 400
WIRE 1120 448 -256 448
FLAG -176 48 0
FLAG 384 224 Vout3
FLAG 384 320 Vout4
FLAG 1120 400 Vout1
FLAG 1120 160 Vout2
SYMBOL osc_gain_cell -288 208 R0
SYMATTR InstName X1
SYMBOL osc_gain_cell 448 208 R0
SYMATTR InstName X2
SYMBOL voltage 0 -32 R90
WINDOW 0 -32 56 VBottom 2
WINDOW 3 32 56 VTop 2
SYMATTR InstName V1
SYMATTR Value 1
TEXT -264 816 Left 2 !.tran 0 10ns 0 1p
TEXT -264 928 Left 2 !.meas t1 find time when V(Vout1)=0.6 cross=9
TEXT -264 960 Left 2 !.meas t2 find time when V(Vout1)=0.6 cross=11\n.meas T param t2-t1\n.meas freq param 1/T
TEXT 288 -72 Left 2 ;Quadrature Phase Ring Oscillator
