Version 4
SHEET 1 1164 680
WIRE 256 96 128 96
WIRE 352 96 256 96
WIRE 384 96 352 96
WIRE 528 96 448 96
WIRE 720 96 528 96
WIRE 128 144 128 96
WIRE 256 144 256 96
WIRE 528 144 528 96
WIRE 352 160 352 96
WIRE 480 160 352 160
WIRE 720 160 720 96
WIRE 480 208 352 208
WIRE 256 256 256 208
WIRE 352 256 352 208
WIRE 352 256 256 256
WIRE 528 256 528 224
WIRE 528 256 352 256
WIRE 640 256 528 256
WIRE 128 272 128 224
WIRE 640 304 640 256
WIRE 640 432 640 384
FLAG 640 432 0
FLAG 128 272 0
FLAG 720 160 0
SYMBOL voltage 128 128 R0
WINDOW 123 18 97 Left 2
WINDOW 39 17 123 Left 2
SYMATTR Value2 AC 1 0
SYMATTR SpiceLine Rser=50
SYMATTR InstName Vin
SYMATTR Value ""
SYMBOL cap 240 144 R0
SYMATTR InstName cgs
SYMATTR Value 620f
SYMBOL cap 448 80 R90
WINDOW 0 0 32 VBottom 2
WINDOW 3 32 32 VTop 2
SYMATTR InstName cgd
SYMATTR Value 132f
SYMBOL res 624 288 R0
SYMATTR InstName Rout
SYMATTR Value 50
SYMBOL g2 528 240 M180
SYMATTR InstName G1
SYMATTR Value {gm}
TEXT 808 528 Left 2 !.ac lin 1000 200meg 25g\n.net I(Rout) Vin
TEXT 808 584 Left 2 !.step param gm 20m 100m 20m
TEXT 208 32 Left 2 ;Small Signal Analysis of Common Drain
